  Page 1                                    Sat Jun  7 10:23:46 2025

  ******************************************************************
  *                           E P A N E T                          *
  *                   Hydraulic and Water Quality                  *
  *                   Analysis for Pipe Networks                   *
  *                         Version 2.2                            *
  ******************************************************************
  
  Analysis begun Sat Jun  7 10:23:46 2025

  Analysis ended Sat Jun  7 10:23:46 2025
